LTspice 24.0.9 for Windows
Circuit: * C:\Users\user\OneDrive - Monash University\2025S1\TRC3500\Project3\SimulationFile\CircuitSimulation.asc
Start Time: Sat May 17 15:35:36 2025
solver = Normal
Maximum thread count: 24
tnom = 27
temp = 27
method = modified trap
Direct Newton iteration for .op point succeeded.
Total elapsed time: 0.112 seconds.

